api/pglib_opf_case60_c__api.m
%%%%%%%%%%%%%%%%%%%%%%%%%%%%%%%%%%%%%%%%%%%%%%%%%%%%%%%%%%%%%%%%%%%%%%%%%%%
%%%%                                                                  %%%%%
%%%%    IEEE PES Power Grid Library - Optimal Power Flow - v23.07     %%%%%
%%%%          (https://github.com/power-grid-lib/pglib-opf)           %%%%%
%%%%             Benchmark Group - Active Power Increase              %%%%%
%%%%                         23 - July - 2023                         %%%%%
%%%%                                                                  %%%%%
%%%%%%%%%%%%%%%%%%%%%%%%%%%%%%%%%%%%%%%%%%%%%%%%%%%%%%%%%%%%%%%%%%%%%%%%%%%
function mpc = pglib_opf_case60_c__api
mpc.version = '2';
mpc.baseMVA = 100.0;

%% bus data
%	bus_i	type	Pd	Qd	Gs	Bs	area	Vm	Va	baseKV	zone	Vmax	Vmin
mpc.bus = [
	1	 1	 313.70	 80.00	 0.0	 -340.12	 1	    1.00000	    0.00000	 130.0	 1	    1.10000	    0.90000;
	2	 1	 470.55	 100.00	 0.0	 0.0	 1	    1.00000	    0.00000	 130.0	 1	    1.10000	    0.90000;
	3	 1	 156.85	 40.00	 0.0	 0.0	 1	    1.00000	    0.00000	 130.0	 1	    1.10000	    0.90000;
	4	 1	 439.18	 95.00	 0.0	 150.0	 1	    1.00000	    0.00000	 130.0	 1	    1.10000	    0.90000;
	5	 1	 630.88	 190.11	 0.0	 200.0	 1	    1.00000	    0.00000	 130.0	 1	    1.10000	    0.90000;
	6	 1	 315.60	 75.06	 0.0	 0.0	 1	    1.00000	    0.00000	 130.0	 1	    1.10000	    0.90000;
	7	 1	 241.87	 96.21	 0.0	 100.0	 1	    1.00000	    0.00000	 130.0	 1	    1.10000	    0.90000;
	8	 1	 841.38	 286.82	 0.0	 200.0	 1	    1.00000	    0.00000	 130.0	 1	    1.10000	    0.90000;
	9	 1	 736.29	 238.47	 0.0	 200.0	 1	    1.00000	    0.00000	 130.0	 1	    1.10000	    0.90000;
	10	 1	 156.85	 30.00	 0.0	 0.0	 1	    1.00000	    0.00000	 220.0	 1	    1.10000	    0.90000;
	11	 1	 313.70	 50.00	 0.0	 0.0	 1	    1.00000	    0.00000	 220.0	 1	    1.10000	    0.90000;
	12	 1	 470.55	 100.00	 0.0	 -400.0	 1	    1.00000	    0.00000	 400.0	 1	    1.10000	    0.90000;
	13	 1	 3137.00	 500.00	 0.0	 0.0	 1	    1.00000	    0.00000	 400.0	 1	    1.10000	    0.90000;
	14	 1	 567.82	 151.10	 0.0	 200.0	 1	    1.00000	    0.00000	 400.0	 1	    1.10000	    0.90000;
	15	 1	 420.69	 143.41	 0.0	 0.0	 1	    1.00000	    0.00000	 400.0	 1	    1.10000	    0.90000;
	16	 1	 946.48	 288.17	 0.0	 200.0	 1	    1.00000	    0.00000	 400.0	 1	    1.10000	    0.90000;
	17	 1	 736.29	 238.47	 0.0	 100.0	 1	    1.00000	    0.00000	 400.0	 1	    1.10000	    0.90000;
	18	 1	 105.09	 48.35	 0.0	 0.0	 1	    1.00000	    0.00000	 400.0	 1	    1.10000	    0.90000;
	19	 1	 841.38	 288.82	 0.0	 100.0	 1	    1.00000	    0.00000	 400.0	 1	    1.10000	    0.90000;
	20	 1	 784.25	 149.00	 0.0	 0.0	 1	    1.00000	    0.00000	 400.0	 1	    1.10000	    0.90000;
	21	 1	 470.55	 100.00	 0.0	 0.0	 1	    1.00000	    0.00000	 400.0	 1	    1.10000	    0.90000;
	22	 1	 925.41	 300.00	 0.0	 0.0	 1	    1.00000	    0.00000	 400.0	 1	    1.10000	    0.90000;
	23	 1	 0.0	 0.0	 0.0	 -100.0	 1	    1.00000	    0.00000	 400.0	 1	    1.10000	    0.90000;
	24	 1	 0.0	 0.0	 0.0	 0.0	 1	    1.00000	    0.00000	 130.0	 1	    1.10000	    0.90000;
	25	 1	 0.0	 0.0	 0.0	 0.0	 1	    1.00000	    0.00000	 130.0	 1	    1.10000	    0.90000;
	26	 1	 0.0	 0.0	 0.0	 0.0	 1	    1.00000	    0.00000	 400.0	 1	    1.10000	    0.90000;
	27	 1	 0.0	 0.0	 0.0	 0.0	 1	    1.00000	    0.00000	 400.0	 1	    1.10000	    0.90000;
	28	 1	 0.0	 0.0	 0.0	 0.0	 1	    1.00000	    0.00000	 400.0	 1	    1.10000	    0.90000;
	29	 1	 0.0	 0.0	 0.0	 0.0	 1	    1.00000	    0.00000	 400.0	 1	    1.10000	    0.90000;
	30	 1	 0.0	 0.0	 0.0	 0.0	 1	    1.00000	    0.00000	 400.0	 1	    1.10000	    0.90000;
	31	 1	 0.0	 0.0	 0.0	 0.0	 1	    1.00000	    0.00000	 400.0	 1	    1.10000	    0.90000;
	32	 1	 0.0	 0.0	 0.0	 0.0	 1	    1.00000	    0.00000	 400.0	 1	    1.10000	    0.90000;
	33	 1	 0.0	 0.0	 0.0	 0.0	 1	    1.00000	    0.00000	 400.0	 1	    1.10000	    0.90000;
	34	 1	 0.0	 0.0	 0.0	 0.0	 1	    1.00000	    0.00000	 400.0	 1	    1.10000	    0.90000;
	35	 1	 0.0	 0.0	 0.0	 0.0	 1	    1.00000	    0.00000	 400.0	 1	    1.10000	    0.90000;
	36	 1	 0.0	 0.0	 0.0	 0.0	 1	    1.00000	    0.00000	 400.0	 1	    1.10000	    0.90000;
	37	 1	 0.0	 0.0	 0.0	 0.0	 1	    1.00000	    0.00000	 400.0	 1	    1.10000	    0.90000;
	38	 2	 0.0	 0.0	 0.0	 0.0	 1	    1.00000	    0.00000	 15.0	 1	    1.10000	    0.90000;
	39	 2	 0.0	 0.0	 0.0	 0.0	 1	    1.00000	    0.00000	 15.0	 1	    1.10000	    0.90000;
	40	 2	 0.0	 0.0	 0.0	 0.0	 1	    1.00000	    0.00000	 15.0	 1	    1.10000	    0.90000;
	41	 2	 0.0	 0.0	 0.0	 0.0	 1	    1.00000	    0.00000	 15.0	 1	    1.10000	    0.90000;
	42	 2	 0.0	 0.0	 0.0	 0.0	 1	    1.00000	    0.00000	 15.0	 1	    1.10000	    0.90000;
	43	 2	 0.0	 0.0	 0.0	 0.0	 1	    1.00000	    0.00000	 15.0	 1	    1.10000	    0.90000;
	44	 2	 0.0	 0.0	 0.0	 0.0	 1	    1.00000	    0.00000	 15.0	 1	    1.10000	    0.90000;
	45	 2	 0.0	 0.0	 0.0	 0.0	 1	    1.00000	    0.00000	 15.0	 1	    1.10000	    0.90000;
	46	 2	 0.0	 0.0	 0.0	 0.0	 1	    1.00000	    0.00000	 15.0	 1	    1.10000	    0.90000;
	47	 2	 0.0	 0.0	 0.0	 0.0	 1	    1.00000	    0.00000	 15.0	 1	    1.10000	    0.90000;
	48	 2	 0.0	 0.0	 0.0	 0.0	 1	    1.00000	    0.00000	 15.0	 1	    1.10000	    0.90000;
	49	 2	 0.0	 0.0	 0.0	 0.0	 1	    1.00000	    0.00000	 15.0	 1	    1.10000	    0.90000;
	50	 2	 0.0	 0.0	 0.0	 0.0	 1	    1.00000	    0.00000	 15.0	 1	    1.10000	    0.90000;
	51	 2	 0.0	 0.0	 0.0	 0.0	 1	    1.00000	    0.00000	 15.0	 1	    1.10000	    0.90000;
	52	 3	 0.0	 0.0	 0.0	 0.0	 1	    1.00000	    0.00000	 15.0	 1	    1.10000	    0.90000;
	53	 2	 0.0	 0.0	 0.0	 0.0	 1	    1.00000	    0.00000	 15.0	 1	    1.10000	    0.90000;
	54	 2	 0.0	 0.0	 0.0	 0.0	 1	    1.00000	    0.00000	 15.0	 1	    1.10000	    0.90000;
	55	 2	 0.0	 0.0	 0.0	 0.0	 1	    1.00000	    0.00000	 15.0	 1	    1.10000	    0.90000;
	56	 2	 0.0	 0.0	 0.0	 0.0	 1	    1.00000	    0.00000	 15.0	 1	    1.10000	    0.90000;
	57	 2	 0.0	 0.0	 0.0	 0.0	 1	    1.00000	    0.00000	 15.0	 1	    1.10000	    0.90000;
	58	 2	 0.0	 0.0	 0.0	 0.0	 1	    1.00000	    0.00000	 15.0	 1	    1.10000	    0.90000;
	59	 2	 0.0	 0.0	 0.0	 0.0	 1	    1.00000	    0.00000	 15.0	 1	    1.10000	    0.90000;
	60	 2	 0.0	 0.0	 0.0	 0.0	 1	    1.00000	    0.00000	 15.0	 1	    1.10000	    0.90000;
];

%% generator data
%	bus	Pg	Qg	Qmax	Qmin	Vg	mBase	status	Pmax	Pmin
mpc.gen = [
	38	 438.5	 0.0	 720.0	 -720.0	 1.0	 800.0	 1	 872	 5.0; % COW
	39	 329.0	 0.0	 540.0	 -540.0	 1.0	 600.0	 1	 653	 5.0; % COW
	40	 174.0	 0.0	 630.0	 -630.0	 1.0	 700.0	 1	 343	 5.0; % COW
	41	 149.5	 0.0	 540.0	 -540.0	 1.0	 600.0	 1	 294	 5.0; % COW
	42	 449.0	 0.0	 447.0	 -447.0	 1.0	 400.0	 1	 893	 5.0; % COW
	43	 206.5	 100.0	 560.0	 -360.0	 1.0	 600.0	 1	 408	 5.0; % NG
	44	 228.0	 40.0	 360.0	 -280.0	 1.0	 400.0	 1	 451	 5.0; % COW
	45	 333.5	 100.0	 965.0	 -765.0	 1.0	 1000.0	 1	 662	 5.0; % NG
	46	 429.0	 0.0	 900.0	 -900.0	 1.0	 1000.0	 1	 853	 5.0; % COW
	47	 106.0	 0.0	 720.0	 -720.0	 1.0	 800.0	 1	 207	 5.0; % COW
	48	 152.5	 100.0	 570.0	 -370.0	 1.0	 600.0	 1	 300	 5.0; % NG
	49	 359.0	 50.0	 515.0	 -415.0	 1.0	 600.0	 1	 713	 5.0; % NG
	50	 0.0	 0.0	 570.0	 -570.0	 1.0	 600.0	 1	 0	 0.0; % SYNC
	51	 573.5	 0.0	 630.0	 -630.0	 1.0	 700.0	 1	 1142	 5.0; % COW
	52	 575.5	 633.5	 1840.0	 -573.0	 1.0	 3000.0	 1	 1146	 5.0; % NUC
	53	 338.0	 20.0	 580.0	 -540.0	 1.0	 600.0	 1	 671	 5.0; % NG
	54	 556.0	 0.0	 630.0	 -630.0	 1.0	 700.0	 1	 1107	 5.0; % COW
	55	 498.0	 0.0	 630.0	 -630.0	 1.0	 700.0	 1	 991	 5.0; % COW
	56	 485.0	 0.0	 540.0	 -540.0	 1.0	 600.0	 1	 965	 5.0; % COW
	57	 333.5	 0.0	 540.0	 -540.0	 1.0	 600.0	 1	 662	 5.0; % NG
	58	 392.0	 0.0	 540.0	 -540.0	 1.0	 600.0	 1	 779	 5.0; % COW
	59	 228.0	 35.0	 520.0	 -450.0	 1.0	 600.0	 1	 451	 5.0; % COW
	60	 2260.0	 871.0	 4000.0	 -2258.0	 1.0	 5000.0	 1	 4515	 5.0; % NG
];

%% generator cost data
%	2	startup	shutdown	n	c(n-1)	...	c0
mpc.gencost = [
	2	 0.0	 0.0	 3	   0.000000	  10.000000	   0.000000; % COW
	2	 0.0	 0.0	 3	   0.000000	  20.000000	   0.000000; % COW
	2	 0.0	 0.0	 3	   0.000000	  10.000000	   0.000000; % COW
	2	 0.0	 0.0	 3	   0.000000	  30.000000	   0.000000; % COW
	2	 0.0	 0.0	 3	   0.000000	  10.000000	   0.000000; % COW
	2	 0.0	 0.0	 3	   0.000000	  20.000000	   0.000000; % NG
	2	 0.0	 0.0	 3	   0.000000	  10.000000	   0.000000; % COW
	2	 0.0	 0.0	 3	   0.000000	  30.000000	   0.000000; % NG
	2	 0.0	 0.0	 3	   0.000000	  10.000000	   0.000000; % COW
	2	 0.0	 0.0	 3	   0.000000	  10.000000	   0.000000; % COW
	2	 0.0	 0.0	 3	   0.000000	  20.000000	   0.000000; % NG
	2	 0.0	 0.0	 3	   0.000000	  10.000000	   0.000000; % NG
	2	 0.0	 0.0	 3	   0.000000	  30.000000	   0.000000; % SYNC
	2	 0.0	 0.0	 3	   0.000000	  10.000000	   0.000000; % COW
	2	 0.0	 0.0	 3	   0.000000	  20.000000	   0.000000; % NUC
	2	 0.0	 0.0	 3	   0.000000	  10.000000	   0.000000; % NG
	2	 0.0	 0.0	 3	   0.000000	  10.000000	   0.000000; % COW
	2	 0.0	 0.0	 3	   0.000000	  30.000000	   0.000000; % COW
	2	 0.0	 0.0	 3	   0.000000	  10.000000	   0.000000; % COW
	2	 0.0	 0.0	 3	   0.000000	  20.000000	   0.000000; % NG
	2	 0.0	 0.0	 3	   0.000000	  10.000000	   0.000000; % COW
	2	 0.0	 0.0	 3	   0.000000	  30.000000	   0.000000; % COW
	2	 0.0	 0.0	 3	   0.000000	  10.000000	   0.000000; % NG
];

%% branch data
%	fbus	tbus	r	x	b	rateA	rateB	rateC	ratio	angle	status	angmin	angmax
mpc.branch = [
	1	 3	 0.01	 0.07	 0.013804	 175.0	 175.0	 175.0	 0.0	 0.0	 1	 -30.0	 30.0;
	1	 3	 0.01	 0.07	 0.013804	 175.0	 175.0	 175.0	 0.0	 0.0	 1	 -30.0	 30.0;
	2	 24	 0.014024	 0.09	 0.018052	 175.0	 175.0	 175.0	 0.0	 0.0	 1	 -30.0	 30.0;
	2	 24	 0.014024	 0.09	 0.018052	 175.0	 175.0	 175.0	 0.0	 0.0	 1	 -30.0	 30.0;
	3	 24	 0.006982	 0.05	 0.010088	 175.0	 175.0	 175.0	 0.0	 0.0	 1	 -30.0	 30.0;
	3	 24	 0.006982	 0.05	 0.010088	 175.0	 175.0	 175.0	 0.0	 0.0	 1	 -30.0	 30.0;
	25	 4	 0.03	 0.2	 0.030263	 175.0	 175.0	 175.0	 0.0	 0.0	 1	 -30.0	 30.0;
	25	 4	 0.03	 0.2	 0.030263	 175.0	 175.0	 175.0	 0.0	 0.0	 1	 -30.0	 30.0;
	5	 7	 0.01	 0.06	 0.012211	 175.0	 175.0	 175.0	 0.0	 0.0	 1	 -30.0	 30.0;
	5	 7	 0.01	 0.06	 0.012211	 175.0	 175.0	 175.0	 0.0	 0.0	 1	 -30.0	 30.0;
	5	 9	 0.01497	 0.12	 0.024954	 175.0	 175.0	 175.0	 0.0	 0.0	 1	 -30.0	 30.0;
	5	 9	 0.01497	 0.12	 0.024954	 175.0	 175.0	 175.0	 0.0	 0.0	 1	 -30.0	 30.0;
	6	 8	 0.037988	 0.28	 0.059995	 175.0	 175.0	 175.0	 0.0	 0.0	 1	 -30.0	 30.0;
	6	 8	 0.037988	 0.28	 0.059995	 175.0	 175.0	 175.0	 0.0	 0.0	 1	 -30.0	 30.0;
	6	 9	 0.05	 0.3	 0.059995	 175.0	 175.0	 175.0	 0.0	 0.0	 1	 -30.0	 30.0;
	7	 8	 0.01	 0.08	 0.015928	 175.0	 175.0	 175.0	 0.0	 0.0	 1	 -30.0	 30.0;
	7	 8	 0.01	 0.08	 0.015928	 175.0	 175.0	 175.0	 0.0	 0.0	 1	 -30.0	 30.0;
	10	 11	 0.012004	 0.09	 0.015205	 250.0	 250.0	 250.0	 0.0	 0.0	 1	 -30.0	 30.0;
	10	 11	 0.012004	 0.09	 0.015205	 250.0	 250.0	 250.0	 0.0	 0.0	 1	 -30.0	 30.0;
	26	 23	 0.001	 0.008	 0.201062	 700.0	 700.0	 700.0	 0.0	 0.0	 1	 -30.0	 30.0;
	26	 27	 0.006	 0.06	 1.799488	 700.0	 700.0	 700.0	 0.0	 0.0	 1	 -30.0	 30.0;
	26	 28	 0.004	 0.04	 1.201344	 700.0	 700.0	 700.0	 0.0	 0.0	 1	 -30.0	 30.0;
	26	 12	 0.005	 0.045	 1.4024	 700.0	 700.0	 700.0	 0.0	 0.0	 1	 -30.0	 30.0;
	23	 28	 0.004	 0.035	 1.05056	 700.0	 700.0	 700.0	 0.0	 0.0	 1	 -30.0	 30.0;
	23	 12	 0.005	 0.05	 1.49792	 700.0	 700.0	 700.0	 0.0	 0.0	 1	 -30.0	 30.0;
	27	 29	 0.004	 0.04	 1.201344	 700.0	 700.0	 700.0	 0.0	 0.0	 1	 -30.0	 30.0;
	27	 30	 0.01	 0.1	 3.000864	 700.0	 700.0	 700.0	 0.0	 0.0	 1	 -30.0	 30.0;
	30	 15	 0.0	 -0.04	 0.0	 700.0	 700.0	 700.0	 0.0	 0.0	 1	 -30.0	 30.0;
	28	 31	 0.004	 0.04	 1.201344	 700.0	 700.0	 700.0	 0.0	 0.0	 1	 -30.0	 30.0;
	28	 31	 0.004	 0.04	 1.201344	 700.0	 700.0	 700.0	 0.0	 0.0	 1	 -30.0	 30.0;
	31	 29	 0.001	 0.01	 0.301594	 700.0	 700.0	 700.0	 0.0	 0.0	 1	 -30.0	 30.0;
	31	 32	 0.006	 0.08	 2.397664	 700.0	 700.0	 700.0	 0.0	 0.0	 1	 -30.0	 30.0;
	32	 14	 0.0	 -0.04	 0.0	 700.0	 700.0	 700.0	 0.0	 0.0	 1	 -30.0	 30.0;
	31	 33	 0.006	 0.08	 2.397664	 700.0	 700.0	 700.0	 0.0	 0.0	 1	 -30.0	 30.0;
	33	 14	 0.0	 -0.04	 0.0	 700.0	 700.0	 700.0	 0.0	 0.0	 1	 -30.0	 30.0;
	29	 34	 0.01	 0.066669	 2.000576	 700.0	 700.0	 700.0	 0.0	 0.0	 1	 -30.0	 30.0;
	34	 15	 0.0	 -0.026669	 0.0	 700.0	 700.0	 700.0	 0.0	 0.0	 1	 -30.0	 30.0;
	29	 35	 0.006	 0.08	 2.397664	 700.0	 700.0	 700.0	 0.0	 0.0	 1	 -30.0	 30.0;
	35	 36	 0.0	 -0.03	 0.0	 700.0	 700.0	 700.0	 0.0	 0.0	 1	 -30.0	 30.0;
	14	 36	 0.003	 0.03	 0.899744	 700.0	 700.0	 700.0	 0.0	 0.0	 1	 -30.0	 30.0;
	14	 20	 0.006	 0.045	 1.301888	 700.0	 700.0	 700.0	 0.0	 0.0	 1	 -30.0	 30.0;
	15	 16	 0.002	 0.015	 0.497632	 700.0	 700.0	 700.0	 0.0	 0.0	 1	 -30.0	 30.0;
	15	 36	 0.002	 0.02	 0.598176	 700.0	 700.0	 700.0	 0.0	 0.0	 1	 -30.0	 30.0;
	16	 36	 0.001	 0.01	 0.301594	 700.0	 700.0	 700.0	 0.0	 0.0	 1	 -30.0	 30.0;
	16	 17	 0.001	 0.01	 0.301594	 700.0	 700.0	 700.0	 0.0	 0.0	 1	 -30.0	 30.0;
	16	 18	 0.002	 0.02	 0.598176	 700.0	 700.0	 700.0	 0.0	 0.0	 1	 -30.0	 30.0;
	36	 37	 0.002	 0.02	 0.598176	 700.0	 700.0	 700.0	 0.0	 0.0	 1	 -30.0	 30.0;
	36	 37	 0.002	 0.02	 0.598176	 700.0	 700.0	 700.0	 0.0	 0.0	 1	 -30.0	 30.0;
	37	 19	 0.004	 0.04	 1.201344	 700.0	 700.0	 700.0	 0.0	 0.0	 1	 -30.0	 30.0;
	37	 19	 0.004	 0.04	 1.201344	 700.0	 700.0	 700.0	 0.0	 0.0	 1	 -30.0	 30.0;
	37	 21	 0.011	 0.08	 2.397664	 700.0	 700.0	 700.0	 0.0	 0.0	 1	 -30.0	 30.0;
	17	 18	 0.001	 0.015	 0.497632	 700.0	 700.0	 700.0	 0.0	 0.0	 1	 -30.0	 30.0;
	20	 21	 0.002	 0.02	 0.598176	 700.0	 700.0	 700.0	 0.0	 0.0	 1	 -30.0	 30.0;
	21	 22	 0.003	 0.03	 0.899744	 700.0	 700.0	 700.0	 0.0	 0.0	 1	 -30.0	 30.0;
	21	 22	 0.003	 0.03	 0.899744	 700.0	 700.0	 700.0	 0.0	 0.0	 1	 -30.0	 30.0;
	12	 13	 0.003	 0.03	 3.000864	 700.0	 700.0	 700.0	 0.0	 0.0	 1	 -30.0	 30.0;
	12	 13	 0.003	 0.03	 3.000864	 700.0	 700.0	 700.0	 0.0	 0.0	 1	 -30.0	 30.0;
	2	 38	 0.0	 0.01875	 0.0	 800.0	 800.0	 800.0	 1.0	 0.0	 1	 -30.0	 30.0;
	3	 39	 0.0	 0.025	 0.0	 600.0	 600.0	 600.0	 1.0	 0.0	 1	 -30.0	 30.0;
	24	 40	 0.0	 0.021429	 0.0	 700.0	 700.0	 700.0	 1.0	 0.0	 1	 -30.0	 30.0;
	25	 41	 0.0	 0.025	 0.0	 600.0	 600.0	 600.0	 1.0	 0.0	 1	 -30.0	 30.0;
	4	 42	 0.0	 0.06	 0.0	 1250.0	 1250.0	 1250.0	 1.0	 0.0	 1	 -30.0	 30.0;
	6	 43	 0.0	 0.0375	 0.0	 400.0	 400.0	 400.0	 1.0	 0.0	 1	 -30.0	 30.0;
	7	 44	 0.0	 0.075	 0.0	 1200.0	 1200.0	 1200.0	 1.0	 0.0	 1	 -30.0	 30.0;
	11	 45	 0.0	 0.017647	 0.0	 850.0	 850.0	 850.0	 1.0	 0.0	 1	 -30.0	 30.0;
	26	 46	 0.0	 0.015	 0.0	 1000.0	 1000.0	 1000.0	 1.0	 0.0	 1	 -30.0	 30.0;
	23	 47	 0.0	 0.01875	 0.0	 800.0	 800.0	 800.0	 1.0	 0.0	 1	 -30.0	 30.0;
	27	 48	 0.0	 0.05	 0.0	 300.0	 300.0	 300.0	 1.0	 0.0	 1	 -30.0	 30.0;
	31	 49	 0.0	 0.042857	 0.0	 1350.0	 1350.0	 1350.0	 1.0	 0.0	 1	 -30.0	 30.0;
	14	 50	 0.0	 0.033333	 0.0	 300.0	 300.0	 300.0	 1.0	 0.0	 1	 -30.0	 30.0;
	15	 51	 0.0	 0.021429	 0.0	 700.0	 700.0	 700.0	 1.0	 0.0	 1	 -30.0	 30.0;
	18	 52	 0.0	 0.025	 0.0	 600.0	 600.0	 600.0	 1.0	 0.0	 1	 -30.0	 30.0;
	18	 53	 0.0	 0.025	 0.0	 600.0	 600.0	 600.0	 1.0	 0.0	 1	 -30.0	 30.0;
	19	 54	 0.0	 0.021429	 0.0	 700.0	 700.0	 700.0	 1.0	 0.0	 1	 -30.0	 30.0;
	19	 55	 0.0	 0.021429	 0.0	 700.0	 700.0	 700.0	 1.0	 0.0	 1	 -30.0	 30.0;
	21	 56	 0.0	 0.025	 0.0	 600.0	 600.0	 600.0	 1.0	 0.0	 1	 -30.0	 30.0;
	22	 57	 0.0	 0.025	 0.0	 600.0	 600.0	 600.0	 1.0	 0.0	 1	 -30.0	 30.0;
	22	 58	 0.0	 0.025	 0.0	 600.0	 600.0	 600.0	 1.0	 0.0	 1	 -30.0	 30.0;
	12	 59	 0.0	 0.03	 0.0	 500.0	 500.0	 500.0	 1.0	 0.0	 1	 -30.0	 30.0;
	13	 60	 0.0	 0.003333	 0.0	 4500.0	 4500.0	 4500.0	 1.0	 0.0	 1	 -30.0	 30.0;
	26	 1	 0.0	 0.008	 0.0	 1250.0	 1250.0	 1250.0	 0.89286	 0.0	 1	 -30.0	 30.0;
	23	 2	 0.0	 0.008	 0.0	 1250.0	 1250.0	 1250.0	 0.89286	 0.0	 1	 -30.0	 30.0;
	28	 4	 0.0	 0.012	 0.0	 833.3	 833.3	 833.3	 0.93458	 0.0	 1	 -30.0	 30.0;
	31	 10	 0.0	 0.012	 0.0	 833.3	 833.3	 833.3	 0.95238	 0.0	 1	 -30.0	 30.0;
	36	 8	 0.0	 0.01	 0.0	 1000.0	 1000.0	 1000.0	 1.0	 0.0	 1	 -30.0	 30.0;
	36	 8	 0.0	 0.01	 0.0	 1000.0	 1000.0	 1000.0	 1.0	 0.0	 1	 -30.0	 30.0;
	37	 9	 0.0	 0.01	 0.0	 1000.0	 1000.0	 1000.0	 1.0	 0.0	 1	 -30.0	 30.0;
	37	 9	 0.0	 0.01	 0.0	 1000.0	 1000.0	 1000.0	 1.0	 0.0	 1	 -30.0	 30.0;
];

% INFO    : === Translation Options ===
% INFO    : Load Model:                  from file ./pglib_opf_case60_c.m.api.sol
% INFO    : Gen Active Capacity Model:   stat
% INFO    : Gen Reactive Capacity Model: al50ag
% INFO    : Gen Active Cost Model:       stat
% INFO    : 
% INFO    : === Load Replacement Notes ===
% INFO    : Bus 1	: Pd=200.0, Qd=80.0 -> Pd=313.70, Qd=80.00
% INFO    : Bus 2	: Pd=300.0, Qd=100.0 -> Pd=470.55, Qd=100.00
% INFO    : Bus 3	: Pd=100.0, Qd=40.0 -> Pd=156.85, Qd=40.00
% INFO    : Bus 4	: Pd=280.0, Qd=95.0 -> Pd=439.18, Qd=95.00
% INFO    : Bus 5	: Pd=402.2198, Qd=190.111 -> Pd=630.88, Qd=190.11
% INFO    : Bus 6	: Pd=201.2099, Qd=75.06049 -> Pd=315.60, Qd=75.06
% INFO    : Bus 7	: Pd=154.2076, Qd=96.21037 -> Pd=241.87, Qd=96.21
% INFO    : Bus 8	: Pd=536.4263, Qd=286.8214 -> Pd=841.38, Qd=286.82
% INFO    : Bus 9	: Pd=469.4231, Qd=238.4712 -> Pd=736.29, Qd=238.47
% INFO    : Bus 10	: Pd=100.0, Qd=30.0 -> Pd=156.85, Qd=30.00
% INFO    : Bus 11	: Pd=200.0, Qd=50.0 -> Pd=313.70, Qd=50.00
% INFO    : Bus 12	: Pd=300.0, Qd=100.0 -> Pd=470.55, Qd=100.00
% INFO    : Bus 13	: Pd=2000.0, Qd=500.0 -> Pd=3137.00, Qd=500.00
% INFO    : Bus 14	: Pd=362.0178, Qd=151.1009 -> Pd=567.82, Qd=151.10
% INFO    : Bus 15	: Pd=268.2132, Qd=143.4107 -> Pd=420.69, Qd=143.41
% INFO    : Bus 16	: Pd=603.4296, Qd=288.1715 -> Pd=946.48, Qd=288.17
% INFO    : Bus 17	: Pd=469.4231, Qd=238.4712 -> Pd=736.29, Qd=238.47
% INFO    : Bus 18	: Pd=67.0033, Qd=48.35017 -> Pd=105.09, Qd=48.35
% INFO    : Bus 19	: Pd=536.4263, Qd=288.8214 -> Pd=841.38, Qd=288.82
% INFO    : Bus 20	: Pd=500.0, Qd=149.0 -> Pd=784.25, Qd=149.00
% INFO    : Bus 21	: Pd=300.0, Qd=100.0 -> Pd=470.55, Qd=100.00
% INFO    : Bus 22	: Pd=590.0, Qd=300.0 -> Pd=925.41, Qd=300.00
% INFO    : 
% INFO    : === Generator Setpoint Replacement Notes ===
% INFO    : Gen at bus 38	: Pg=365.0, Qg=0.0 -> Pg=502.0, Qg=-295.0
% INFO    : Gen at bus 39	: Pg=275.0, Qg=0.0 -> Pg=464.0, Qg=15.0
% INFO    : Gen at bus 40	: Pg=320.0, Qg=0.0 -> Pg=232.0, Qg=-88.0
% INFO    : Gen at bus 41	: Pg=275.0, Qg=0.0 -> Pg=88.0, Qg=-18.0
% INFO    : Gen at bus 42	: Pg=242.5, Qg=50.0 -> Pg=441.0, Qg=46.0
% INFO    : Gen at bus 43	: Pg=285.0, Qg=100.0 -> Pg=393.0, Qg=76.0
% INFO    : Gen at bus 44	: Pg=195.0, Qg=40.0 -> Pg=326.0, Qg=105.0
% INFO    : Gen at bus 45	: Pg=487.5, Qg=100.0 -> Pg=586.0, Qg=79.0
% INFO    : Gen at bus 46	: Pg=455.0, Qg=0.0 -> Pg=789.0, Qg=612.0
% INFO    : Gen at bus 47	: Pg=365.0, Qg=0.0 -> Pg=163.0, Qg=482.0
% INFO    : Gen at bus 48	: Pg=290.0, Qg=100.0 -> Pg=298.0, Qg=34.0
% INFO    : Gen at bus 49	: Pg=292.5, Qg=50.0 -> Pg=632.0, Qg=212.0
% INFO    : Gen at bus 50	: Pg=0.0, Qg=0.0 -> Pg=0.0, Qg=-131.0
% INFO    : Gen at bus 51	: Pg=320.0, Qg=0.0 -> Pg=695.0, Qg=79.0
% INFO    : Gen at bus 52	: Pg=1405.0, Qg=650.0 -> Pg=594.0, Qg=87.0
% INFO    : Gen at bus 53	: Pg=275.0, Qg=20.0 -> Pg=594.0, Qg=87.0
% INFO    : Gen at bus 54	: Pg=320.0, Qg=0.0 -> Pg=690.0, Qg=119.0
% INFO    : Gen at bus 55	: Pg=320.0, Qg=0.0 -> Pg=690.0, Qg=119.0
% INFO    : Gen at bus 56	: Pg=275.0, Qg=0.0 -> Pg=589.0, Qg=112.0
% INFO    : Gen at bus 57	: Pg=275.0, Qg=0.0 -> Pg=586.0, Qg=127.0
% INFO    : Gen at bus 58	: Pg=275.0, Qg=0.0 -> Pg=586.0, Qg=127.0
% INFO    : Gen at bus 59	: Pg=285.0, Qg=35.0 -> Pg=425.0, Qg=184.0
% INFO    : Gen at bus 60	: Pg=2255.0, Qg=975.0 -> Pg=3997.0, Qg=766.0
% INFO    : 
% INFO    : === Generator Reactive Capacity Atleast Setpoint Value Notes ===
% INFO    : 
% INFO    : === Generator Classification Notes ===
% INFO    : NUC    1   -     4.14
% INFO    : SYNC   1   -     0.00
% INFO    : COW    14  -    46.52
% INFO    : NG     7   -    49.35
% INFO    : 
% INFO    : === Generator Active Capacity Stat Model Notes ===
% INFO    : Gen at bus 38 - COW	: Pg=502.0, Pmax=720.0 -> Pmax=872   samples: 9
% INFO    : Gen at bus 39 - COW	: Pg=464.0, Pmax=540.0 -> Pmax=653   samples: 1
% INFO    : Gen at bus 40 - COW	: Pg=232.0, Pmax=630.0 -> Pmax=343   samples: 1
% INFO    : Gen at bus 41 - COW	: Pg=88.0, Pmax=540.0 -> Pmax=294   samples: 3
% INFO    : Gen at bus 42 - COW	: Pg=441.0, Pmax=475.0 -> Pmax=893   samples: 1
% INFO    : Gen at bus 43 - NG	: Pg=393.0, Pmax=560.0 -> Pmax=408   samples: 34
% INFO    : Gen at bus 44 - COW	: Pg=326.0, Pmax=380.0 -> Pmax=451   samples: 1
% WARNING : Failed to find a generator capacity within (586.0-2930.0) after 100 samples, using percent increase model
% INFO    : Gen at bus 45 - NG	: Pg=586.0, Pmax=965.0 -> Pmax=662   samples: 100
% INFO    : Gen at bus 46 - COW	: Pg=789.0, Pmax=900.0 -> Pmax=853   samples: 1
% INFO    : Gen at bus 47 - COW	: Pg=163.0, Pmax=720.0 -> Pmax=207   samples: 1
% INFO    : Gen at bus 48 - NG	: Pg=298.0, Pmax=570.0 -> Pmax=300   samples: 3
% WARNING : Failed to find a generator capacity within (632.0-3160.0) after 100 samples, using percent increase model
% INFO    : Gen at bus 49 - NG	: Pg=632.0, Pmax=575.0 -> Pmax=713   samples: 100
% INFO    : Gen at bus 50 - SYNC	: Pg=0.0, Pmax=0.0 -> Pmax=0   samples: 0
% INFO    : Gen at bus 51 - COW	: Pg=695.0, Pmax=630.0 -> Pmax=1142   samples: 4
% INFO    : Gen at bus 52 - NUC	: Pg=594.0, Pmax=2800.0 -> Pmax=1146   samples: 1
% WARNING : Failed to find a generator capacity within (594.0-2970.0) after 100 samples, using percent increase model
% INFO    : Gen at bus 53 - NG	: Pg=594.0, Pmax=540.0 -> Pmax=671   samples: 100
% INFO    : Gen at bus 54 - COW	: Pg=690.0, Pmax=630.0 -> Pmax=1107   samples: 1
% INFO    : Gen at bus 55 - COW	: Pg=690.0, Pmax=630.0 -> Pmax=991   samples: 10
% INFO    : Gen at bus 56 - COW	: Pg=589.0, Pmax=540.0 -> Pmax=965   samples: 2
% WARNING : Failed to find a generator capacity within (586.0-2930.0) after 100 samples, using percent increase model
% INFO    : Gen at bus 57 - NG	: Pg=586.0, Pmax=540.0 -> Pmax=662   samples: 100
% INFO    : Gen at bus 58 - COW	: Pg=586.0, Pmax=540.0 -> Pmax=779   samples: 1
% INFO    : Gen at bus 59 - COW	: Pg=425.0, Pmax=560.0 -> Pmax=451   samples: 1
% WARNING : Failed to find a generator capacity within (3997.0-19985.0) after 100 samples, using percent increase model
% INFO    : Gen at bus 60 - NG	: Pg=3997.0, Pmax=4500.0 -> Pmax=4515   samples: 100
% INFO    : 
% INFO    : === Generator Active Capacity LB Model Notes ===
% INFO    : Gen at bus 38	: Pmin=10.0 -> Pmin=5.0 
% INFO    : Gen at bus 39	: Pmin=10.0 -> Pmin=5.0 
% INFO    : Gen at bus 40	: Pmin=10.0 -> Pmin=5.0 
% INFO    : Gen at bus 41	: Pmin=10.0 -> Pmin=5.0 
% INFO    : Gen at bus 42	: Pmin=10.0 -> Pmin=5.0 
% INFO    : Gen at bus 43	: Pmin=10.0 -> Pmin=5.0 
% INFO    : Gen at bus 44	: Pmin=10.0 -> Pmin=5.0 
% INFO    : Gen at bus 45	: Pmin=10.0 -> Pmin=5.0 
% INFO    : Gen at bus 46	: Pmin=10.0 -> Pmin=5.0 
% INFO    : Gen at bus 47	: Pmin=10.0 -> Pmin=5.0 
% INFO    : Gen at bus 48	: Pmin=10.0 -> Pmin=5.0 
% INFO    : Gen at bus 49	: Pmin=10.0 -> Pmin=5.0 
% INFO    : Gen at bus 51	: Pmin=10.0 -> Pmin=5.0 
% INFO    : Gen at bus 52	: Pmin=10.0 -> Pmin=5.0 
% INFO    : Gen at bus 53	: Pmin=10.0 -> Pmin=5.0 
% INFO    : Gen at bus 54	: Pmin=10.0 -> Pmin=5.0 
% INFO    : Gen at bus 55	: Pmin=10.0 -> Pmin=5.0 
% INFO    : Gen at bus 56	: Pmin=10.0 -> Pmin=5.0 
% INFO    : Gen at bus 57	: Pmin=10.0 -> Pmin=5.0 
% INFO    : Gen at bus 58	: Pmin=10.0 -> Pmin=5.0 
% INFO    : Gen at bus 59	: Pmin=10.0 -> Pmin=5.0 
% INFO    : Gen at bus 60	: Pmin=10.0 -> Pmin=5.0 
% INFO    : 
% INFO    : === Generator Reactive Capacity Atleast Max 50 Percent Active Model Notes ===
% INFO    : Gen at bus 42 - COW	: Pmax 893.0, Qmin -225.0, Qmax 325.0 -> Qmin -447.0, Qmax 447.0
% INFO    : Gen at bus 52 - NUC	: Pmax 1146.0, Qmin -540.0, Qmax 1840.0 -> Qmin -573.0, Qmax 1840.0
% INFO    : Gen at bus 60 - NG	: Pmax 4515.0, Qmin -2050.0, Qmax 4000.0 -> Qmin -2258.0, Qmax 4000.0
% INFO    : 
% INFO    : === Generator Setpoint Replacement Notes ===
% INFO    : Gen at bus 38	: Pg=502.0, Qg=-295.0 -> Pg=438.5, Qg=0.0
% INFO    : Gen at bus 38	: Vg=1.0 -> Vg=1.0
% INFO    : Gen at bus 39	: Pg=464.0, Qg=15.0 -> Pg=329.0, Qg=0.0
% INFO    : Gen at bus 39	: Vg=1.0 -> Vg=1.0
% INFO    : Gen at bus 40	: Pg=232.0, Qg=-88.0 -> Pg=174.0, Qg=0.0
% INFO    : Gen at bus 40	: Vg=1.0 -> Vg=1.0
% INFO    : Gen at bus 41	: Pg=88.0, Qg=-18.0 -> Pg=149.5, Qg=0.0
% INFO    : Gen at bus 41	: Vg=1.0 -> Vg=1.0
% INFO    : Gen at bus 42	: Pg=441.0, Qg=46.0 -> Pg=449.0, Qg=0.0
% INFO    : Gen at bus 42	: Vg=1.0 -> Vg=1.0
% INFO    : Gen at bus 43	: Pg=393.0, Qg=76.0 -> Pg=206.5, Qg=100.0
% INFO    : Gen at bus 43	: Vg=1.0 -> Vg=1.0
% INFO    : Gen at bus 44	: Pg=326.0, Qg=105.0 -> Pg=228.0, Qg=40.0
% INFO    : Gen at bus 44	: Vg=1.0 -> Vg=1.0
% INFO    : Gen at bus 45	: Pg=586.0, Qg=79.0 -> Pg=333.5, Qg=100.0
% INFO    : Gen at bus 45	: Vg=1.0 -> Vg=1.0
% INFO    : Gen at bus 46	: Pg=789.0, Qg=612.0 -> Pg=429.0, Qg=0.0
% INFO    : Gen at bus 46	: Vg=1.0 -> Vg=1.0
% INFO    : Gen at bus 47	: Pg=163.0, Qg=482.0 -> Pg=106.0, Qg=0.0
% INFO    : Gen at bus 47	: Vg=1.0 -> Vg=1.0
% INFO    : Gen at bus 48	: Pg=298.0, Qg=34.0 -> Pg=152.5, Qg=100.0
% INFO    : Gen at bus 48	: Vg=1.0 -> Vg=1.0
% INFO    : Gen at bus 49	: Pg=632.0, Qg=212.0 -> Pg=359.0, Qg=50.0
% INFO    : Gen at bus 49	: Vg=1.0 -> Vg=1.0
% INFO    : Gen at bus 50	: Pg=0.0, Qg=-131.0 -> Pg=0.0, Qg=0.0
% INFO    : Gen at bus 50	: Vg=1.0 -> Vg=1.0
% INFO    : Gen at bus 51	: Pg=695.0, Qg=79.0 -> Pg=573.5, Qg=0.0
% INFO    : Gen at bus 51	: Vg=1.0 -> Vg=1.0
% INFO    : Gen at bus 52	: Pg=594.0, Qg=87.0 -> Pg=575.5, Qg=633.5
% INFO    : Gen at bus 52	: Vg=1.0 -> Vg=1.0
% INFO    : Gen at bus 53	: Pg=594.0, Qg=87.0 -> Pg=338.0, Qg=20.0
% INFO    : Gen at bus 53	: Vg=1.0 -> Vg=1.0
% INFO    : Gen at bus 54	: Pg=690.0, Qg=119.0 -> Pg=556.0, Qg=0.0
% INFO    : Gen at bus 54	: Vg=1.0 -> Vg=1.0
% INFO    : Gen at bus 55	: Pg=690.0, Qg=119.0 -> Pg=498.0, Qg=0.0
% INFO    : Gen at bus 55	: Vg=1.0 -> Vg=1.0
% INFO    : Gen at bus 56	: Pg=589.0, Qg=112.0 -> Pg=485.0, Qg=0.0
% INFO    : Gen at bus 56	: Vg=1.0 -> Vg=1.0
% INFO    : Gen at bus 57	: Pg=586.0, Qg=127.0 -> Pg=333.5, Qg=0.0
% INFO    : Gen at bus 57	: Vg=1.0 -> Vg=1.0
% INFO    : Gen at bus 58	: Pg=586.0, Qg=127.0 -> Pg=392.0, Qg=0.0
% INFO    : Gen at bus 58	: Vg=1.0 -> Vg=1.0
% INFO    : Gen at bus 59	: Pg=425.0, Qg=184.0 -> Pg=228.0, Qg=35.0
% INFO    : Gen at bus 59	: Vg=1.0 -> Vg=1.0
% INFO    : Gen at bus 60	: Pg=3997.0, Qg=766.0 -> Pg=2260.0, Qg=871.0
% INFO    : Gen at bus 60	: Vg=1.0 -> Vg=1.0
% INFO    : 
% INFO    : === Writing Matpower Case File Notes ===
